@<TRIPOS>MOLECULE
*****
 6 5 0 0 0
SMALL
GASTEIGER

@<TRIPOS>ATOM
      1 C11        28.2510  -11.2480  -16.8760 C.2  1649  P6G1649    -0.1058
      2 C12        27.1500  -11.2020  -17.9460 C.2  1649  P6G1649    -0.1058
      3 H          26.1829  -11.4677  -17.7030 H       1  LIG1        0.0529
      4 H          27.3774  -10.9054  -18.9080 H       1  LIG1        0.0529
      5 H          28.0236  -11.5446  -15.9140 H       1  LIG1        0.0529
      6 H          29.2181  -10.9823  -17.1190 H       1  LIG1        0.0529
@<TRIPOS>BOND
     1     2     1    2
     2     2     3    1
     3     2     4    1
     4     1     5    1
     5     1     6    1
