@<TRIPOS>MOLECULE
*****
 86 91 0 0 0
SMALL
GASTEIGER

@<TRIPOS>ATOM
      1 P          34.2750  -22.7820  -19.5910 P.3   701  FAD701      0.2182
      2 PA         35.6450  -22.8480  -17.0950 P.3   701  FAD701      0.2182
      3 O1P        33.9960  -24.2290  -19.8990 O.co2 701  FAD701     -0.4371
      4 O2P        34.4880  -21.8200  -20.7300 O.2   701  FAD701     -0.5170
      5 O3P        35.6050  -22.6460  -18.6920 O.3   701  FAD701     -0.2703
      6 C5'        32.5070  -20.9700  -18.9530 C.3   701  FAD701      0.0833
      7 O5'        33.1190  -22.2190  -18.6240 O.3   701  FAD701     -0.3246
      8 C4'        31.2100  -20.6950  -18.1980 C.3   701  FAD701      0.1072
      9 O4'        30.9760  -21.6770  -17.1820 O.3   701  FAD701     -0.3868
     10 C3'        31.2990  -19.3060  -17.5880 C.3   701  FAD701      0.1125
     11 O3'        31.5170  -18.3600  -18.6300 O.3   701  FAD701     -0.3865
     12 C2'        30.0380  -18.9040  -16.8490 C.3   701  FAD701      0.1192
     13 O2'        30.0330  -19.5460  -15.5740 O.3   701  FAD701     -0.3854
     14 C1'        30.1160  -17.3940  -16.7280 C.3   701  FAD701      0.1098
     15 C1B        39.9160  -26.4860  -16.4200 C.3   701  FAD701      0.1667
     16 N1         27.4490  -16.3790  -17.0260 N.am  701  FAD701      0.0464
     17 N1A        44.5320  -28.6570  -17.4940 N.ar  701  FAD701     -0.2188
     18 O1A        34.3720  -23.5030  -16.6180 O.2   701  FAD701     -0.5170
     19 C2         26.2130  -15.9010  -17.2440 C.2   701  FAD701      0.4403
     20 C2A        43.4370  -29.1610  -16.8960 C.ar  701  FAD701      0.1205
     21 C2B        39.7000  -25.5810  -15.2150 C.3   701  FAD701      0.1285
     22 O2         25.6690  -16.1370  -18.3450 O.2   701  FAD701     -0.2192
     23 O2A        36.1040  -21.5500  -16.4740 O.co2 701  FAD701     -0.4371
     24 O2B        40.2160  -26.1790  -14.0210 O.3   701  FAD701     -0.3847
     25 C3B        38.1940  -25.4530  -15.1240 C.3   701  FAD701      0.1135
     26 N3         25.5440  -15.1820  -16.3270 N.am  701  FAD701     -0.2109
     27 N3A        42.3060  -28.4620  -16.6930 N.ar  701  FAD701     -0.2159
     28 O3B        37.7310  -26.1540  -13.9710 O.3   701  FAD701     -0.3864
     29 C4         26.0720  -14.8940  -15.1380 C.2   701  FAD701      0.2793
     30 C4A        42.2100  -27.1750  -17.0960 C.ar  701  FAD701      0.1674
     31 C4B        37.6640  -26.1080  -16.3890 C.3   701  FAD701      0.1133
     32 C4X        27.4330  -15.3900  -14.8160 C.2   701  FAD701      0.2151
     33 O4         25.4160  -14.2280  -14.3170 O.2   701  FAD701     -0.2677
     34 O4B        38.7870  -26.2440  -17.2640 O.3   701  FAD701     -0.3456
     35 C5A        43.3590  -26.5500  -17.7660 C.ar  701  FAD701      0.1473
     36 C5B        36.5400  -25.3010  -17.0160 C.3   701  FAD701      0.0836
     37 C5X        29.1790  -15.7730  -13.3170 C.2   701  FAD701      0.0855
     38 N5         28.0290  -15.1590  -13.6380 N.2   701  FAD701     -0.2357
     39 O5B        36.8460  -23.9120  -16.9630 O.3   701  FAD701     -0.3246
     40 C6         29.7010  -15.6640  -12.0300 C.2   701  FAD701     -0.0516
     41 C6A        44.5640  -27.3890  -17.9480 C.ar  701  FAD701      0.1472
     42 N6A        45.6660  -26.9050  -18.5510 N.pl3 701  FAD701     -0.3413
     43 C7         30.9040  -16.2940  -11.7130 C.3   701  FAD701     -0.0027
     44 C7M        31.4960  -16.1970  -10.3380 C.3   701  FAD701     -0.0552
     45 N7A        42.9960  -25.2890  -18.0590 N.ar  701  FAD701     -0.2306
     46 C8         31.6400  -17.0730  -12.7380 C.2   701  FAD701     -0.0658
     47 C8A        41.7180  -25.1240  -17.6120 C.ar  701  FAD701      0.1004
     48 C8M        32.9360  -17.7550  -12.3890 C.3   701  FAD701     -0.0431
     49 C9         31.1320  -17.1720  -14.0240 C.2   701  FAD701     -0.0362
     50 C9A        29.9270  -16.5610  -14.3520 C.3   701  FAD701      0.1517
     51 N9A        41.2480  -26.2550  -17.0460 N.ar  701  FAD701     -0.2855
     52 C10        28.1040  -16.1720  -15.8780 C.cat 701  FAD701      0.3409
     53 N10        29.4000  -16.6790  -15.6590 N.pl3 701  FAD701     -0.2057
     54 H          32.2930  -20.9663  -20.0014 H     701  FAD701      0.0591
     55 H          33.1978  -20.2034  -18.6700 H     701  FAD701      0.0591
     56 H          30.3862  -20.7482  -18.8788 H     701  FAD701      0.0643
     57 H          31.7047  -21.6601  -16.5420 H     701  FAD701      0.2100
     58 H          32.1040  -19.3228  -16.8833 H     701  FAD701      0.0647
     59 H          30.7666  -18.3771  -19.2444 H     701  FAD701      0.2100
     60 H          29.1357  -19.1918  -17.3469 H     701  FAD701      0.0658
     61 H          30.8391  -19.3089  -15.0894 H     701  FAD701      0.2101
     62 H          29.7558  -16.9961  -17.6536 H     701  FAD701      0.0753
     63 H          31.1421  -17.2322  -16.4715 H     701  FAD701      0.0753
     64 H          39.9581  -27.5261  -16.1723 H     701  FAD701      0.0866
     65 H          43.4667  -30.1411  -16.5743 H     701  FAD701      0.1048
     66 H          40.1992  -24.6403  -15.3191 H     701  FAD701      0.0665
     67 H          39.7919  -27.0401  -13.8813 H     701  FAD701      0.2101
     68 H          37.8697  -24.4369  -15.0391 H     701  FAD701      0.0647
     69 H          24.6386  -14.8590  -16.5395 H     701  FAD701      0.1617
     70 H          38.0118  -27.0811  -14.0218 H     701  FAD701      0.2100
     71 H          37.2301  -27.0629  -16.1772 H     701  FAD701      0.0647
     72 H          36.4182  -25.5978  -18.0368 H     701  FAD701      0.0591
     73 H          35.6353  -25.4810  -16.4738 H     701  FAD701      0.0591
     74 H          29.1985  -15.1182  -11.3127 H     701  FAD701      0.0597
     75 H          45.6800  -25.9770  -18.8795 H     701  FAD701      0.1438
     76 H          46.4579  -27.4790  -18.6634 H     701  FAD701      0.1438
     77 H          29.8853  -15.9743  -11.6429 H     701  FAD701      0.0386
     78 H          32.5189  -16.5097  -10.3672 H     701  FAD701      0.0238
     79 H          30.9491  -16.8279   -9.6689 H     701  FAD701      0.0238
     80 H          31.4423  -15.1841   -9.9972 H     701  FAD701      0.0238
     81 H          41.1800  -24.2473  -17.6959 H     701  FAD701      0.1030
     82 H          33.3150  -18.2632  -13.2510 H     701  FAD701      0.0275
     83 H          32.7669  -18.4620  -11.6038 H     701  FAD701      0.0275
     84 H          33.6472  -17.0246  -12.0641 H     701  FAD701      0.0275
     85 H          31.6509  -17.7019  -14.7416 H     701  FAD701      0.0616
     86 H          30.8439  -17.0227  -14.6537 H     701  FAD701      0.0877
@<TRIPOS>BOND
     1     4     1    2
     2     3     1    1
     3     1     5    1
     4     1     7    1
     5     6     7    1
     6     6     8    1
     7     5     2    1
     8    11    10    1
     9    42    41    1
    10    22    19    2
    11     8    10    1
    12     8     9    1
    13    45    35   ar
    14    45    47   ar
    15    41    35   ar
    16    41    17   ar
    17    35    30   ar
    18    47    51   ar
    19    10    12    1
    20    17    20   ar
    21    34    15    1
    22    34    31    1
    23    19    16    1
    24    19    26   am
    25    30    51   ar
    26    30    27   ar
    27     2    39    1
    28     2    18    2
    29     2    23    1
    30    51    15    1
    31    16    52    2
    32    36    39    1
    33    36    31    1
    34    20    27   ar
    35    12    14    1
    36    12    13    1
    37    14    53    1
    38    15    21    1
    39    31    25    1
    40    26    29   am
    41    52    53    1
    42    52    32    1
    43    53    50    1
    44    21    25    1
    45    21    24    1
    46    29    32    1
    47    29    33    2
    48    25    28    1
    49    32    38    2
    50    50    49    1
    51    50    37    1
    52    49    46    2
    53    38    37    1
    54    37    40    2
    55    46    48    1
    56    46    43    1
    57    40    43    1
    58    43    44    1
    59     6    54    1
    60     6    55    1
    61     8    56    1
    62     9    57    1
    63    10    58    1
    64    11    59    1
    65    12    60    1
    66    13    61    1
    67    14    62    1
    68    14    63    1
    69    15    64    1
    70    20    65    1
    71    21    66    1
    72    24    67    1
    73    25    68    1
    74    26    69    1
    75    28    70    1
    76    31    71    1
    77    36    72    1
    78    36    73    1
    79    40    74    1
    80    42    75    1
    81    42    76    1
    82    43    77    1
    83    44    78    1
    84    44    79    1
    85    44    80    1
    86    47    81    1
    87    48    82    1
    88    48    83    1
    89    48    84    1
    90    49    85    1
    91    50    86    1
